@<TRIPOS>MOLECULE
HEPES
 37 37 0 0 0
SMALL
GASTEIGER

@<TRIPOS>ATOM
      1 C           4.4968    2.9414   -0.0215 C.3     1  UNL1        0.0222
      2 C           3.1370    3.5360    0.3707 C.3     1  UNL1        0.0569
      3 O           2.0936    2.6591   -0.0496 O.3     1  UNL1       -0.3937
      4 H           2.9698    4.5042   -0.1099 H       1  UNL1        0.0570
      5 H           3.0672    3.6585    1.4564 H       1  UNL1        0.0570
      6 H           1.2570    3.0582    0.2446 H       1  UNL1        0.2095
      7 N           5.6585    3.7137    0.4584 N.3     1  UNL1       -0.2977
      8 H           4.5316    2.8058   -1.1111 H       1  UNL1        0.0449
      9 H           4.5384    1.9286    0.4019 H       1  UNL1        0.0449
     10 C           6.9026    2.9600    0.1830 C.3     1  UNL1        0.0118
     11 C           8.1813    3.7393    0.5727 C.3     1  UNL1        0.0117
     12 H           6.9622    2.6949   -0.8816 H       1  UNL1        0.0439
     13 H           6.8910    2.0226    0.7525 H       1  UNL1        0.0439
     14 C           5.7495    5.0355   -0.1953 C.3     1  UNL1        0.0118
     15 C           7.0269    5.8086    0.2070 C.3     1  UNL1        0.0117
     16 H           4.8915    5.6532    0.0918 H       1  UNL1        0.0439
     17 H           5.7268    4.9274   -1.2881 H       1  UNL1        0.0439
     18 N           8.2574    5.0522   -0.0991 N.3     1  UNL1       -0.2991
     19 H           6.9805    6.0539    1.2769 H       1  UNL1        0.0439
     20 H           7.0327    6.7563   -0.3454 H       1  UNL1        0.0439
     21 H           9.0419    3.1222    0.2927 H       1  UNL1        0.0439
     22 H           8.2076    3.8623    1.6639 H       1  UNL1        0.0439
     23 C           9.4480    5.8178    0.3034 C.3     1  UNL1        0.0090
     24 C          10.7299    5.2799   -0.3339 C.3     1  UNL1        0.0181
     25 H           9.5475    5.8541    1.3961 H       1  UNL1        0.0435
     26 H           9.3289    6.8578   -0.0274 H       1  UNL1        0.0435
     27 S          12.1042    6.2830    0.0261 S.3     1  UNL1       -0.1091
     28 H          10.6300    5.2433   -1.4239 H       1  UNL1        0.0400
     29 H          10.9681    4.2740    0.0239 H       1  UNL1        0.0400
     30 O          13.2341    5.6915   -0.9652 O.3     1  UNL1       -0.3434
     31 H          13.6840    4.8608   -0.6846 H       1  UNL1        0.2260
     32 C          12.0024    7.8952   -0.5156 C.2     1  UNL1       -0.0567
     33 C          12.8232    6.0517    1.5525 C.2     1  UNL1       -0.0567
     34 H          11.5198    8.1398   -1.4733 H       1  UNL1        0.0615
     35 H          12.4185    8.7234    0.0760 H       1  UNL1        0.0615
     36 H          12.7969    5.0728    2.0530 H       1  UNL1        0.0615
     37 H          13.3321    6.8785    2.0699 H       1  UNL1        0.0615
@<TRIPOS>BOND
     1     1     2    1
     2     1     7    1
     3     1     8    1
     4     1     9    1
     5     2     3    1
     6     2     4    1
     7     2     5    1
     8     3     6    1
     9     7    10    1
    10     7    14    1
    11    10    11    1
    12    10    12    1
    13    10    13    1
    14    11    18    1
    15    11    21    1
    16    11    22    1
    17    14    15    1
    18    14    16    1
    19    14    17    1
    20    15    18    1
    21    15    19    1
    22    15    20    1
    23    18    23    1
    24    23    24    1
    25    23    25    1
    26    23    26    1
    27    24    27    1
    28    24    28    1
    29    24    29    1
    30    27    30    1
    31    27    32    2
    32    27    33    2
    33    30    31    1
    34    32    34    1
    35    32    35    1
    36    33    36    1
    37    33    37    1
